LTspice 24.0.12 for Windows
Circuit: *Rev.a July,2008
Start Time: Sun Oct 19 19:55:07 2025
Fatal Error: No analysis request found.
