LTspice 24.0.12 for Windows
Circuit: * C:\Users\Klaud\Documents\Git Projects\esp-now-differential-probe\simluation\ltc6268_probe.asc
Start Time: Sun Oct 19 20:34:37 2025
solver = Normal
Maximum thread count: 12
tnom = 27
temp = 27
method = modified trap
Instance "m:u3:3": Length shorter than recommended for a level 1 MOSFET.
Instance "m:u3:4": Length shorter than recommended for a level 1 MOSFET.
Early termination of direct N-R iteration.
Direct Newton iteration failed to find .op point.  (Use ".option noopiter" to skip.)
Starting Gmin stepping
Gmin = 10
Gmin = 1.07374
vernier = 0.5
vernier = 0.25
vernier = 0.125
vernier = 0.0625
Gmin = 1.10559
vernier = 0.03125
vernier = 0.015625
Gmin = 1.05931
vernier = 0.0078125
vernier = 0.0104167
vernier = 0.00520833
Gmin = 1.04494
vernier = 0.00694444
vernier = 0.00347222
Gmin = 1.03547
vernier = 0.00462963
vernier = 0.00231481
vernier = 0.00308642
Gmin = 1.02989
vernier = 0.00154321
vernier = 0.000771604
vernier = 0.00102881
Gmin = 1.02903
vernier = 0.000514403
Gmin = 0
Gmin stepping failed

Starting source stepping with srcstepmethod=0
Source Step = 3.0303%
Source Step = 28.0303%
vernier = 0.0625
Source Step = 29.1667%
Source Step = 31.0606%
Source Step = 32.9545%
Source Step = 34.8485%
Source Step = 36.7424%
vernier = 0.09375
Source Step = 39.4886%
Source Step = 42.3295%
Source Step = 45.1705%
Source Step = 48.0114%
Source Step = 50.8523%
vernier = 0.140625
Source Step = 54.8295%
Source Step = 59.0909%
Source Step = 63.3523%
Source Step = 67.6136%
Source Step = 71.875%
vernier = 0.210938
Source Step = 77.6278%
Source Step = 84.0199%
Source Step = 90.4119%
Source Step = 96.804%
Source stepping succeeded in finding the operating point.

Total elapsed time: 1.317 seconds.

